Drug_lst.sdf
  ChemDraw07112014452D

 13 13  0  0  0  0  0  0  0  0999 V2000
   -1.7862   -1.4437    0.0000 O   0  0  0  0  0  0  0  0  0  0  0  0
   -1.0717   -1.0313    0.0000 C   0  0  0  0  0  0  0  0  0  0  0  0
   -0.3572   -1.4437    0.0000 O   0  0  0  0  0  0  0  0  0  0  0  0
   -1.0717   -0.2062    0.0000 C   0  0  0  0  0  0  0  0  0  0  0  0
   -1.7862    0.2062    0.0000 C   0  0  0  0  0  0  0  0  0  0  0  0
   -1.7862    1.0313    0.0000 C   0  0  0  0  0  0  0  0  0  0  0  0
   -1.0717    1.4437    0.0000 C   0  0  0  0  0  0  0  0  0  0  0  0
   -0.3572    1.0313    0.0000 C   0  0  0  0  0  0  0  0  0  0  0  0
   -0.3572    0.2062    0.0000 C   0  0  0  0  0  0  0  0  0  0  0  0
    0.3572   -0.2062    0.0000 O   0  0  0  0  0  0  0  0  0  0  0  0
    1.0717    0.2062    0.0000 C   0  0  0  0  0  0  0  0  0  0  0  0
    1.7862   -0.2062    0.0000 C   0  0  0  0  0  0  0  0  0  0  0  0
    1.0717    1.0313    0.0000 O   0  0  0  0  0  0  0  0  0  0  0  0
  1  2  2  0      
  2  3  1  0      
  2  4  1  0      
  4  5  1  0      
  5  6  2  0      
  6  7  1  0      
  7  8  2  0      
  8  9  1  0      
  4  9  2  0      
  9 10  1  0      
 10 11  1  0      
 11 12  1  0      
 11 13  2  0      
V    4 1
V    5 6
V    6 5
V    7 4
V    8 3
V    9 2
V   11 1
V   12 2
M  END
$$$$
Drug_lst.sdf
  ChemDraw07112014452D

 22 26  0  0  1  0  0  0  0  0999 V2000
   -1.8239    2.0625    0.0000 O   0  0  0  0  0  0  0  0  0  0  0  0
   -1.8239   -2.0625    0.0000 O   0  0  0  0  0  0  0  0  0  0  0  0
    0.3195    1.6500    0.0000 C   0  0  0  0  0  0  0  0  0  0  0  0
   -0.3950    2.0625    0.0000 C   0  0  0  0  0  0  0  0  0  0  0  0
   -1.1095    1.6500    0.0000 C   0  0  0  0  0  0  0  0  0  0  0  0
   -1.1095    0.8250    0.0000 C   0  0  0  0  0  0  0  0  0  0  0  0
   -1.6541    0.0017    0.0000 O   0  0  0  0  0  0  0  0  0  0  0  0
   -0.3950    0.4125    0.0000 C   0  0  0  0  0  0  0  0  0  0  0  0
   -0.3950   -0.4125    0.0000 C   0  0  0  0  0  0  0  0  0  0  0  0
   -1.1095   -0.8250    0.0000 C   0  0  0  0  0  0  0  0  0  0  0  0
   -1.1095   -1.6500    0.0000 C   0  0  0  0  0  0  0  0  0  0  0  0
   -0.3950   -2.0625    0.0000 C   0  0  0  0  0  0  0  0  0  0  0  0
    0.3195   -1.6500    0.0000 C   0  0  0  0  0  0  0  0  0  0  0  0
    0.3195   -0.8250    0.0000 C   0  0  0  0  0  0  0  0  0  0  0  0
    0.3195    0.0000    0.0000 H   0  0  0  0  0  0  0  0  0  0  0  0
    1.0339   -0.4125    0.0000 C   0  0  0  0  0  0  0  0  0  0  0  0
    1.1095   -1.3375    0.0000 N   0  0  0  0  0  0  0  0  0  0  0  0
    1.8239   -1.7500    0.0000 C   0  0  0  0  0  0  0  0  0  0  0  0
    0.3186   -1.8233    0.0000 C   0  0  0  0  0  0  0  0  0  0  0  0
   -0.4723   -1.3375    0.0000 C   0  0  0  0  0  0  0  0  0  0  0  0
    1.0339    0.4125    0.0000 C   0  0  0  0  0  0  0  0  0  0  0  0
    0.3195    0.8250    0.0000 C   0  0  0  0  0  0  0  0  0  0  0  0
  3  4  2  0      
  4  5  1  0      
  1  5  1  0      
  5  6  2  0      
  6  7  1  0      
  6  8  1  0      
  8  9  1  0      
  9 10  1  0      
 10  7  1  6      
 10 11  1  0      
 11  2  1  6      
 11 12  1  0      
 12 13  2  0      
 13 14  1  0      
  9 14  1  0      
 14 15  1  1      
 14 16  1  0      
 16 17  1  1      
 17 18  1  0      
 17 19  1  0      
 19 20  1  0      
  9 20  1  1      
 16 21  1  0      
 21 22  1  0      
  8 22  2  0      
  3 22  1  0      
V    3 11
V    4 10
V    5 9
V    6 8a
V    7 8
V    8 12a
V    9 12b
V   10 7a
V   11 7
V   12 6
V   13 5
V   14 4a
V   16 4
V   17 3
V   19 2
V   20 1
V   21 13
V   22 12
M  END
$$$$
Drug_lst.sdf
  ChemDraw07112014452D

 34 38  0  0  0  0  0  0  0  0999 V2000
    4.1636   -3.0064    0.0000 C   0  0  0  0  0  0  0  0  0  0  0  0
    3.3566   -2.8349    0.0000 O   0  0  0  0  0  0  0  0  0  0  0  0
    3.1016   -2.0503    0.0000 C   0  0  0  0  0  0  0  0  0  0  0  0
    2.2947   -1.8788    0.0000 C   0  0  0  0  0  0  0  0  0  0  0  0
    2.0397   -1.0941    0.0000 C   0  0  0  0  0  0  0  0  0  0  0  0
    2.5918   -0.4810    0.0000 C   0  0  0  0  0  0  0  0  0  0  0  0
    3.3987   -0.6526    0.0000 C   0  0  0  0  0  0  0  0  0  0  0  0
    3.6537   -1.4372    0.0000 C   0  0  0  0  0  0  0  0  0  0  0  0
    2.3368    0.3036    0.0000 N   0  0  0  0  0  0  0  0  0  0  0  0
    2.8218    0.9710    0.0000 N   0  0  0  0  0  0  0  0  0  0  0  0
    2.3368    1.6385    0.0000 C   0  0  0  0  0  0  0  0  0  0  0  0
    2.5918    2.4231    0.0000 C   0  0  0  0  0  0  0  0  0  0  0  0
    3.3987    2.5946    0.0000 N   0  0  0  0  0  0  0  0  0  0  0  0
    2.0084    3.0064    0.0000 O   0  0  0  0  0  0  0  0  0  0  0  0
    1.5522    1.3835    0.0000 C   0  0  0  0  0  0  0  0  0  0  0  0
    1.5522    0.5585    0.0000 C   0  0  0  0  0  0  0  0  0  0  0  0
    0.8377    0.1460    0.0000 C   0  0  0  0  0  0  0  0  0  0  0  0
    0.8377   -0.6790    0.0000 O   0  0  0  0  0  0  0  0  0  0  0  0
    0.1233    0.5585    0.0000 N   0  0  0  0  0  0  0  0  0  0  0  0
    0.1233    1.3835    0.0000 C   0  0  0  0  0  0  0  0  0  0  0  0
    0.8377    1.7960    0.0000 C   0  0  0  0  0  0  0  0  0  0  0  0
   -0.5912    0.1460    0.0000 C   0  0  0  0  0  0  0  0  0  0  0  0
   -0.5912   -0.6790    0.0000 C   0  0  0  0  0  0  0  0  0  0  0  0
   -1.3057   -1.0915    0.0000 C   0  0  0  0  0  0  0  0  0  0  0  0
   -2.0201   -0.6790    0.0000 C   0  0  0  0  0  0  0  0  0  0  0  0
   -2.0201    0.1460    0.0000 C   0  0  0  0  0  0  0  0  0  0  0  0
   -1.3057    0.5585    0.0000 C   0  0  0  0  0  0  0  0  0  0  0  0
   -2.7346   -1.0915    0.0000 N   0  0  0  0  0  0  0  0  0  0  0  0
   -3.4491   -0.6790    0.0000 C   0  0  0  0  0  0  0  0  0  0  0  0
   -4.1636   -1.0915    0.0000 C   0  0  0  0  0  0  0  0  0  0  0  0
   -4.1636   -1.9165    0.0000 C   0  0  0  0  0  0  0  0  0  0  0  0
   -3.4491   -2.3290    0.0000 C   0  0  0  0  0  0  0  0  0  0  0  0
   -2.7346   -1.9165    0.0000 C   0  0  0  0  0  0  0  0  0  0  0  0
   -2.0201   -2.3290    0.0000 O   0  0  0  0  0  0  0  0  0  0  0  0
  1  2  1  0      
  2  3  1  0      
  3  4  2  0      
  4  5  1  0      
  5  6  2  0      
  6  7  1  0      
  7  8  2  0      
  3  8  1  0      
  6  9  1  0      
  9 10  1  0      
 10 11  2  0      
 11 12  1  0      
 12 13  1  0      
 12 14  2  0      
 11 15  1  0      
 15 16  2  0      
  9 16  1  0      
 16 17  1  0      
 17 18  2  0      
 17 19  1  0      
 19 20  1  0      
 20 21  1  0      
 15 21  1  0      
 19 22  1  0      
 22 23  2  0      
 23 24  1  0      
 24 25  2  0      
 25 26  1  0      
 26 27  2  0      
 22 27  1  0      
 25 28  1  0      
 28 29  1  0      
 29 30  1  0      
 30 31  1  0      
 31 32  1  0      
 32 33  1  0      
 28 33  1  0      
 33 34  2  0      
V    3 4
V    4 3
V    5 2
V    6 1
V    7 6
V    8 5
V    9 1
V   10 2
V   11 3
V   15 3a
V   16 7a
V   17 7
V   19 6
V   20 5
V   21 4
V   22 1
V   23 2
V   24 3
V   25 4
V   26 5
V   27 6
V   28 1
V   29 6
V   30 5
V   31 4
V   32 3
V   33 2
M  END
$$$$
Drug_lst.sdf
  ChemDraw07112014452D

 19 21  0  0  0  0  0  0  0  0999 V2000
   -2.2848   -1.5510    0.0000 N   0  0  0  0  0  0  0  0  0  0  0  0
   -2.2848   -0.7260    0.0000 C   0  0  0  0  0  0  0  0  0  0  0  0
   -2.9992   -0.3135    0.0000 C   0  0  0  0  0  0  0  0  0  0  0  0
   -2.9992    0.5115    0.0000 C   0  0  0  0  0  0  0  0  0  0  0  0
   -2.2848    0.9240    0.0000 C   0  0  0  0  0  0  0  0  0  0  0  0
   -1.5703    0.5115    0.0000 C   0  0  0  0  0  0  0  0  0  0  0  0
   -1.5703   -0.3135    0.0000 C   0  0  0  0  0  0  0  0  0  0  0  0
   -0.7857   -0.5685    0.0000 C   0  0  0  0  0  0  0  0  0  0  0  0
   -0.3008    0.0990    0.0000 N   0  0  0  0  0  0  0  0  0  0  0  0
    0.5242    0.0990    0.0000 C   0  0  0  0  0  0  0  0  0  0  0  0
    0.9367    0.8134    0.0000 C   0  0  0  0  0  0  0  0  0  0  0  0
    1.7617    0.8134    0.0000 C   0  0  0  0  0  0  0  0  0  0  0  0
    2.1742    0.0990    0.0000 C   0  0  0  0  0  0  0  0  0  0  0  0
    2.9992    0.0990    0.0000 O   0  0  0  0  0  0  0  0  0  0  0  0
    1.7617   -0.6155    0.0000 N   0  0  0  0  0  0  0  0  0  0  0  0
    0.9367   -0.6155    0.0000 C   0  0  0  0  0  0  0  0  0  0  0  0
    0.5242   -1.3300    0.0000 O   0  0  0  0  0  0  0  0  0  0  0  0
   -0.7857    0.7664    0.0000 C   0  0  0  0  0  0  0  0  0  0  0  0
   -0.5307    1.5510    0.0000 O   0  0  0  0  0  0  0  0  0  0  0  0
  1  2  1  0      
  2  3  2  0      
  3  4  1  0      
  4  5  2  0      
  5  6  1  0      
  6  7  2  0      
  2  7  1  0      
  7  8  1  0      
  8  9  1  0      
  9 10  1  0      
 10 11  1  0      
 11 12  1  0      
 12 13  1  0      
 13 14  2  0      
 13 15  1  0      
 15 16  1  0      
 10 16  1  0      
 16 17  2  0      
  9 18  1  0      
  6 18  1  0      
 18 19  2  0      
V    2 4
V    3 5
V    4 6
V    5 7
V    6 7a
V    7 3a
V    8 3
V    9 2
V   10 3
V   11 4
V   12 5
V   13 6
V   15 1
V   16 2
V   18 1
M  END
$$$$
Drug_lst.sdf
  ChemDraw07112014452D

 29 32  0  0  1  0  0  0  0  0999 V2000
   -5.6063   -0.0627    0.0000 Cl  0  0  0  0  0  0  0  0  0  0  0  0
   -4.7859   -0.1490    0.0000 C   0  0  0  0  0  0  0  0  0  0  0  0
   -4.3734   -0.8634    0.0000 C   0  0  0  0  0  0  0  0  0  0  0  0
   -3.5664   -0.6919    0.0000 C   0  0  0  0  0  0  0  0  0  0  0  0
   -3.4801    0.1286    0.0000 C   0  0  0  0  0  0  0  0  0  0  0  0
   -4.2338    0.4641    0.0000 S   0  0  0  0  0  0  0  0  0  0  0  0
   -2.7657    0.5411    0.0000 C   0  0  0  0  0  0  0  0  0  0  0  0
   -2.7657    1.3661    0.0000 O   0  0  0  0  0  0  0  0  0  0  0  0
   -2.0512    0.1286    0.0000 N   0  0  0  0  0  0  0  0  0  0  0  0
   -1.3367    0.5411    0.0000 C   0  0  0  0  0  0  0  0  0  0  0  0
   -0.6223    0.1286    0.0000 C   0  0  0  0  0  0  0  0  0  0  0  0
    0.1314    0.4641    0.0000 C   0  0  0  0  0  0  0  0  0  0  0  0
    0.6834   -0.1490    0.0000 N   0  0  0  0  0  0  0  0  0  0  0  0
    0.2709   -0.8634    0.0000 C   0  0  0  0  0  0  0  0  0  0  0  0
    0.6065   -1.6171    0.0000 O   0  0  0  0  0  0  0  0  0  0  0  0
   -0.5360   -0.6919    0.0000 O   0  0  0  0  0  0  0  0  0  0  0  0
    1.5039   -0.0627    0.0000 C   0  0  0  0  0  0  0  0  0  0  0  0
    1.8395    0.6910    0.0000 C   0  0  0  0  0  0  0  0  0  0  0  0
    2.6600    0.7772    0.0000 C   0  0  0  0  0  0  0  0  0  0  0  0
    3.1449    0.1098    0.0000 C   0  0  0  0  0  0  0  0  0  0  0  0
    2.8093   -0.6439    0.0000 C   0  0  0  0  0  0  0  0  0  0  0  0
    1.9889   -0.7302    0.0000 C   0  0  0  0  0  0  0  0  0  0  0  0
    3.9654    0.1960    0.0000 N   0  0  0  0  0  0  0  0  0  0  0  0
    4.4503   -0.4715    0.0000 C   0  0  0  0  0  0  0  0  0  0  0  0
    5.2708   -0.3852    0.0000 C   0  0  0  0  0  0  0  0  0  0  0  0
    5.6063    0.3685    0.0000 O   0  0  0  0  0  0  0  0  0  0  0  0
    5.1214    1.0359    0.0000 C   0  0  0  0  0  0  0  0  0  0  0  0
    4.3009    0.9497    0.0000 C   0  0  0  0  0  0  0  0  0  0  0  0
    3.8160    1.6171    0.0000 O   0  0  0  0  0  0  0  0  0  0  0  0
  1  2  1  0      
  2  3  2  0      
  3  4  1  0      
  4  5  2  0      
  5  6  1  0      
  2  6  1  0      
  5  7  1  0      
  7  8  2  0      
  7  9  1  0      
  9 10  1  0      
 11 10  1  1      
 11 12  1  0      
 12 13  1  0      
 13 14  1  0      
 14 15  2  0      
 14 16  1  0      
 11 16  1  0      
 13 17  1  0      
 17 18  2  0      
 18 19  1  0      
 19 20  2  0      
 20 21  1  0      
 21 22  2  0      
 17 22  1  0      
 20 23  1  0      
 23 24  1  0      
 24 25  1  0      
 25 26  1  0      
 26 27  1  0      
 27 28  1  0      
 23 28  1  0      
 28 29  2  0      
V    2 5
V    3 4
V    4 3
V    5 2
V    6 1
V   10 1
V   11 5
V   12 4
V   13 3
V   14 2
V   16 1
V   17 1
V   18 2
V   19 3
V   20 4
V   21 5
V   22 6
V   23 4
V   24 5
V   25 6
V   26 1
V   27 2
V   28 3
M  END
$$$$
Drug_lst.sdf
  ChemDraw07112014452D

 15 15  0  0  0  0  0  0  0  0999 V2000
   -2.1434    0.8250    0.0000 C   0  0  0  0  0  0  0  0  0  0  0  0
   -2.8579    1.2375    0.0000 C   0  0  0  0  0  0  0  0  0  0  0  0
   -2.1434    0.0000    0.0000 C   0  0  0  0  0  0  0  0  0  0  0  0
   -1.4289    1.2375    0.0000 C   0  0  0  0  0  0  0  0  0  0  0  0
   -0.7145    0.8250    0.0000 C   0  0  0  0  0  0  0  0  0  0  0  0
   -0.7145    0.0000    0.0000 C   0  0  0  0  0  0  0  0  0  0  0  0
    0.0000   -0.4125    0.0000 C   0  0  0  0  0  0  0  0  0  0  0  0
    0.7145    0.0000    0.0000 C   0  0  0  0  0  0  0  0  0  0  0  0
    0.7145    0.8250    0.0000 C   0  0  0  0  0  0  0  0  0  0  0  0
    0.0000    1.2375    0.0000 C   0  0  0  0  0  0  0  0  0  0  0  0
    1.4289   -0.4125    0.0000 C   0  0  0  0  0  0  0  0  0  0  0  0
    1.4289   -1.2375    0.0000 C   0  0  0  0  0  0  0  0  0  0  0  0
    2.1434    0.0000    0.0000 C   0  0  0  0  0  0  0  0  0  0  0  0
    2.1434    0.8250    0.0000 O   0  0  0  0  0  0  0  0  0  0  0  0
    2.8579   -0.4125    0.0000 O   0  0  0  0  0  0  0  0  0  0  0  0
  1  2  1  0      
  1  3  1  0      
  1  4  1  0      
  4  5  1  0      
  5  6  1  0      
  6  7  2  0      
  7  8  1  0      
  8  9  2  0      
  9 10  1  0      
  5 10  2  0      
  8 11  1  0      
 11 12  1  0      
 11 13  1  0      
 13 14  2  0      
 13 15  1  0      
V    5 4
V    6 3
V    7 2
V    8 1
V    9 6
V   10 5
V   11 2
V   12 3
V   13 1
M  END
$$$$
Drug_lst.sdf
  ChemDraw07112014452D

 19 20  0  0  0  0  0  0  0  0999 V2000
    0.3572   -1.8562    0.0000 O   0  0  0  0  0  0  0  0  0  0  0  0
    0.3572   -1.0313    0.0000 C   0  0  0  0  0  0  0  0  0  0  0  0
    1.0717   -0.6187    0.0000 C   0  0  0  0  0  0  0  0  0  0  0  0
    1.7862   -1.0313    0.0000 N   0  0  0  0  0  0  0  0  0  0  0  0
    2.5006   -0.6187    0.0000 C   0  0  0  0  0  0  0  0  0  0  0  0
    2.5006    0.2062    0.0000 C   0  0  0  0  0  0  0  0  0  0  0  0
    3.2151   -1.0313    0.0000 C   0  0  0  0  0  0  0  0  0  0  0  0
   -0.3572   -0.6187    0.0000 C   0  0  0  0  0  0  0  0  0  0  0  0
   -1.0717   -1.0313    0.0000 O   0  0  0  0  0  0  0  0  0  0  0  0
   -1.7862   -0.6187    0.0000 C   0  0  0  0  0  0  0  0  0  0  0  0
   -2.5006   -1.0313    0.0000 C   0  0  0  0  0  0  0  0  0  0  0  0
   -3.2151   -0.6187    0.0000 C   0  0  0  0  0  0  0  0  0  0  0  0
   -3.2151    0.2062    0.0000 C   0  0  0  0  0  0  0  0  0  0  0  0
   -2.5006    0.6187    0.0000 C   0  0  0  0  0  0  0  0  0  0  0  0
   -2.5006    1.4437    0.0000 C   0  0  0  0  0  0  0  0  0  0  0  0
   -1.7862    1.8562    0.0000 C   0  0  0  0  0  0  0  0  0  0  0  0
   -1.0717    1.4437    0.0000 C   0  0  0  0  0  0  0  0  0  0  0  0
   -1.0717    0.6187    0.0000 C   0  0  0  0  0  0  0  0  0  0  0  0
   -1.7862    0.2062    0.0000 C   0  0  0  0  0  0  0  0  0  0  0  0
  1  2  1  0      
  2  3  1  0      
  3  4  1  0      
  4  5  1  0      
  5  6  1  0      
  5  7  1  0      
  2  8  1  0      
  8  9  1  0      
  9 10  1  0      
 10 11  1  0      
 11 12  2  0      
 12 13  1  0      
 13 14  2  0      
 14 15  1  0      
 15 16  2  0      
 16 17  1  0      
 17 18  2  0      
 18 19  1  0      
 10 19  2  0      
 14 19  1  0      
V    2 2
V    3 1
V    8 3
V   10 1
V   11 2
V   12 3
V   13 4
V   14 4a
V   15 5
V   16 6
V   17 7
V   18 8
V   19 8a
M  END
$$$$
Drug_lst.sdf
  ChemDraw07112014452D

 12 13  0  0  0  0  0  0  0  0999 V2000
   -0.1080    1.5113    0.0000 C   0  0  0  0  0  0  0  0  0  0  0  0
    0.5051    0.9592    0.0000 N   0  0  0  0  0  0  0  0  0  0  0  0
    0.4189    0.1387    0.0000 C   0  0  0  0  0  0  0  0  0  0  0  0
   -0.2956   -0.2738    0.0000 C   0  0  0  0  0  0  0  0  0  0  0  0
   -0.2956   -1.0988    0.0000 C   0  0  0  0  0  0  0  0  0  0  0  0
   -1.0101   -1.5113    0.0000 C   0  0  0  0  0  0  0  0  0  0  0  0
   -1.7246   -1.0988    0.0000 C   0  0  0  0  0  0  0  0  0  0  0  0
   -1.7246   -0.2738    0.0000 N   0  0  0  0  0  0  0  0  0  0  0  0
   -1.0101    0.1387    0.0000 C   0  0  0  0  0  0  0  0  0  0  0  0
    1.1725   -0.1968    0.0000 C   0  0  0  0  0  0  0  0  0  0  0  0
    1.7246    0.4163    0.0000 C   0  0  0  0  0  0  0  0  0  0  0  0
    1.3121    1.1308    0.0000 C   0  0  0  0  0  0  0  0  0  0  0  0
  1  2  1  0      
  2  3  1  0      
  3  4  1  0      
  4  5  1  0      
  5  6  2  0      
  6  7  1  0      
  7  8  2  0      
  8  9  1  0      
  4  9  2  0      
  3 10  1  0      
 10 11  1  0      
 11 12  1  0      
  2 12  1  0      
V    2 1
V    3 2
V    4 3
V    5 4
V    6 5
V    7 6
V    8 1
V    9 2
V   10 3
V   11 4
V   12 5
M  END
$$$$
